data_crystal
 
_cell_length_a    26.76506
_cell_length_b    26.76507
_cell_length_c    38.66014
_cell_angle_alpha 90.00000
_cell_angle_beta  90.00000
_cell_angle_gamma 90.00000
 
_symmetry_space_group_name_Hall 'P 1'
_symmetry_space_group_name_H-M  'P 1'
 
loop_
_symmetry_equiv_pos_as_xyz
 'x,y,z' 
 
loop_
_atom_site_label
_atom_site_type_symbol
_atom_site_fract_x
_atom_site_fract_y
_atom_site_fract_z
_atom_site_charge
Cu         Cu      0.05461   0.70224   0.50000   0.0000000000
Cu         Cu      0.94539   0.29776   0.50000   0.0000000000
Cu         Cu      0.29776   0.05461   0.50000   0.0000000000
Cu         Cu      0.70224   0.94539   0.50000   0.0000000000
Cu         Cu      0.55406   0.20256  -0.00000   0.0000000000
Cu         Cu      0.44594   0.79744  -0.00000   0.0000000000
Cu         Cu      0.79744   0.55406  -0.00000   0.0000000000
Cu         Cu      0.20256   0.44594  -0.00000   0.0000000000
Cu         Cu      0.06982   0.61236   0.50000   0.0000000000
Cu         Cu      0.93018   0.38764   0.50000   0.0000000000
Cu         Cu      0.38764   0.06982   0.50000   0.0000000000
Cu         Cu      0.61236   0.93018   0.50000   0.0000000000
Cu         Cu      0.56755   0.11220  -0.00001   0.0000000000
Cu         Cu      0.43245   0.88780  -0.00000   0.0000000000
Cu         Cu      0.88780   0.56755  -0.00001   0.0000000000
Cu         Cu      0.11220   0.43245  -0.00002   0.0000000000
Cu         Cu      0.37820   0.32336   0.15114   0.0000000000
Cu         Cu      0.62180   0.67664   0.15114   0.0000000000
Cu         Cu      0.67664   0.37820   0.15114   0.0000000000
Cu         Cu      0.32335   0.62180   0.15114   0.0000000000
Cu         Cu      0.62180   0.67665   0.84886   0.0000000000
Cu         Cu      0.37820   0.32335   0.84886   0.0000000000
Cu         Cu      0.32336   0.62180   0.84886   0.0000000000
Cu         Cu      0.67664   0.37820   0.84886   0.0000000000
Cu         Cu      0.87906   0.82280   0.65050   0.0000000000
Cu         Cu      0.12094   0.17720   0.65050   0.0000000000
Cu         Cu      0.17720   0.87906   0.65050   0.0000000000
Cu         Cu      0.82280   0.12094   0.65050   0.0000000000
Cu         Cu      0.12094   0.17720   0.34950   0.0000000000
Cu         Cu      0.87906   0.82280   0.34950   0.0000000000
Cu         Cu      0.82280   0.12094   0.34950   0.0000000000
Cu         Cu      0.17720   0.87906   0.34950   0.0000000000
Cu         Cu      0.34032   0.26895   0.19501   0.0000000000
Cu         Cu      0.65968   0.73105   0.19501   0.0000000000
Cu         Cu      0.73105   0.34032   0.19501   0.0000000000
Cu         Cu      0.26895   0.65968   0.19501   0.0000000000
Cu         Cu      0.65968   0.73105   0.80499   0.0000000000
Cu         Cu      0.34032   0.26895   0.80499   0.0000000000
Cu         Cu      0.26895   0.65968   0.80499   0.0000000000
Cu         Cu      0.73105   0.34032   0.80499   0.0000000000
Cu         Cu      0.84245   0.76850   0.69486   0.0000000000
Cu         Cu      0.15755   0.23150   0.69486   0.0000000000
Cu         Cu      0.23150   0.84245   0.69486   0.0000000000
Cu         Cu      0.76850   0.15755   0.69486   0.0000000000
Cu         Cu      0.15755   0.23150   0.30514   0.0000000000
Cu         Cu      0.84245   0.76850   0.30514   0.0000000000
Cu         Cu      0.76850   0.15755   0.30514   0.0000000000
Cu         Cu      0.23150   0.84245   0.30514   0.0000000000
O          O       0.11939   0.62468   0.46294   0.0000000000
O          O       0.88061   0.37532   0.46294   0.0000000000
O          O       0.37532   0.11939   0.46294   0.0000000000
O          O       0.62468   0.88061   0.46294   0.0000000000
O          O       0.88061   0.37532   0.53706   0.0000000000
O          O       0.11939   0.62468   0.53706   0.0000000000
O          O       0.62468   0.88061   0.53706   0.0000000000
O          O       0.37532   0.11939   0.53706   0.0000000000
O          O       0.61697   0.12405   0.96315   0.0000000000
O          O       0.38303   0.87594   0.96316   0.0000000000
O          O       0.87595   0.61697   0.96316   0.0000000000
O          O       0.12405   0.38304   0.96314   0.0000000000
O          O       0.38303   0.87594   0.03683   0.0000000000
O          O       0.61697   0.12406   0.03683   0.0000000000
O          O       0.12406   0.38303   0.03682   0.0000000000
O          O       0.87594   0.61697   0.03683   0.0000000000
O          O       0.10536   0.70864   0.46297   0.0000000000
O          O       0.89464   0.29136   0.46297   0.0000000000
O          O       0.29136   0.10536   0.46297   0.0000000000
O          O       0.70864   0.89464   0.46297   0.0000000000
O          O       0.89464   0.29136   0.53703   0.0000000000
O          O       0.10536   0.70864   0.53703   0.0000000000
O          O       0.70864   0.89464   0.53703   0.0000000000
O          O       0.29136   0.10536   0.53703   0.0000000000
O          O       0.60554   0.20838   0.96368   0.0000000000
O          O       0.39446   0.79162   0.96368   0.0000000000
O          O       0.79162   0.60554   0.96368   0.0000000000
O          O       0.20838   0.39446   0.96368   0.0000000000
O          O       0.39446   0.79162   0.03632   0.0000000000
O          O       0.60554   0.20838   0.03632   0.0000000000
O          O       0.20839   0.39446   0.03632   0.0000000000
O          O       0.79162   0.60554   0.03632   0.0000000000
O          O       0.17777   0.81235   0.37150   0.0000000000
O          O       0.82223   0.18765   0.37150   0.0000000000
O          O       0.18765   0.17777   0.37150   0.0000000000
O          O       0.81235   0.82223   0.37150   0.0000000000
O          O       0.82223   0.18765   0.62850   0.0000000000
O          O       0.17777   0.81235   0.62850   0.0000000000
O          O       0.81235   0.82223   0.62850   0.0000000000
O          O       0.18765   0.17777   0.62850   0.0000000000
O          O       0.68032   0.31226   0.87249   0.0000000000
O          O       0.31968   0.68774   0.87249   0.0000000000
O          O       0.68774   0.68032   0.87249   0.0000000000
O          O       0.31226   0.31968   0.87249   0.0000000000
O          O       0.31968   0.68774   0.12751   0.0000000000
O          O       0.68032   0.31226   0.12751   0.0000000000
O          O       0.31226   0.31968   0.12751   0.0000000000
O          O       0.68774   0.68032   0.12751   0.0000000000
O          O       0.22754   0.77764   0.32998   0.0000000000
O          O       0.77246   0.22236   0.32998   0.0000000000
O          O       0.22236   0.22754   0.32998   0.0000000000
O          O       0.77764   0.77246   0.32998   0.0000000000
O          O       0.77246   0.22236   0.67002   0.0000000000
O          O       0.22754   0.77764   0.67002   0.0000000000
O          O       0.77764   0.77246   0.67002   0.0000000000
O          O       0.22236   0.22754   0.67002   0.0000000000
O          O       0.72745   0.27548   0.83039   0.0000000000
O          O       0.27255   0.72452   0.83039   0.0000000000
O          O       0.72452   0.72745   0.83039   0.0000000000
O          O       0.27548   0.27255   0.83039   0.0000000000
O          O       0.27255   0.72452   0.16961   0.0000000000
O          O       0.72745   0.27548   0.16961   0.0000000000
O          O       0.27548   0.27255   0.16961   0.0000000000
O          O       0.72452   0.72745   0.16961   0.0000000000
O          O       0.26702   0.59404   0.21887   0.0000000000
O          O       0.73298   0.40596   0.21887   0.0000000000
O          O       0.40596   0.26702   0.21887   0.0000000000
O          O       0.59404   0.73298   0.21887   0.0000000000
O          O       0.73298   0.40596   0.78113   0.0000000000
O          O       0.26702   0.59404   0.78113   0.0000000000
O          O       0.59404   0.73298   0.78113   0.0000000000
O          O       0.40596   0.26702   0.78113   0.0000000000
O          O       0.76918   0.09173   0.71807   0.0000000000
O          O       0.23082   0.90827   0.71807   0.0000000000
O          O       0.90827   0.76918   0.71807   0.0000000000
O          O       0.09173   0.23082   0.71807   0.0000000000
O          O       0.23082   0.90827   0.28193   0.0000000000
O          O       0.76918   0.09173   0.28193   0.0000000000
O          O       0.09173   0.23082   0.28193   0.0000000000
O          O       0.90827   0.76918   0.28193   0.0000000000
O          O       0.32190   0.56112   0.17964   0.0000000000
O          O       0.67810   0.43888   0.17964   0.0000000000
O          O       0.43888   0.32190   0.17964   0.0000000000
O          O       0.56112   0.67810   0.17964   0.0000000000
O          O       0.67810   0.43888   0.82036   0.0000000000
O          O       0.32190   0.56112   0.82036   0.0000000000
O          O       0.56112   0.67810   0.82036   0.0000000000
O          O       0.43888   0.32190   0.82036   0.0000000000
O          O       0.81943   0.05799   0.67651   0.0000000000
O          O       0.18057   0.94201   0.67651   0.0000000000
O          O       0.94201   0.81943   0.67651   0.0000000000
O          O       0.05799   0.18057   0.67651   0.0000000000
O          O       0.18057   0.94201   0.32349   0.0000000000
O          O       0.81943   0.05799   0.32349   0.0000000000
O          O       0.05799   0.18057   0.32349   0.0000000000
O          O       0.94201   0.81943   0.32349   0.0000000000
O          O       0.35525   0.38315   0.17624   0.0000000000
O          O       0.64475   0.61685   0.17624   0.0000000000
O          O       0.61685   0.35525   0.17624   0.0000000000
O          O       0.38315   0.64475   0.17624   0.0000000000
O          O       0.64475   0.61685   0.82376   0.0000000000
O          O       0.35525   0.38315   0.82376   0.0000000000
O          O       0.38315   0.64475   0.82376   0.0000000000
O          O       0.61685   0.35525   0.82376   0.0000000000
O          O       0.85827   0.88062   0.67799   0.0000000000
O          O       0.14173   0.11938   0.67799   0.0000000000
O          O       0.11938   0.85827   0.67799   0.0000000000
O          O       0.88062   0.14173   0.67799   0.0000000000
O          O       0.14173   0.11938   0.32201   0.0000000000
O          O       0.85827   0.88062   0.32201   0.0000000000
O          O       0.88062   0.14173   0.32201   0.0000000000
O          O       0.11938   0.85827   0.32201   0.0000000000
O          O       0.32466   0.33284   0.21898   0.0000000000
O          O       0.67534   0.66716   0.21898   0.0000000000
O          O       0.66716   0.32466   0.21898   0.0000000000
O          O       0.33284   0.67534   0.21898   0.0000000000
O          O       0.67534   0.66715   0.78102   0.0000000000
O          O       0.32466   0.33285   0.78102   0.0000000000
O          O       0.33285   0.67534   0.78102   0.0000000000
O          O       0.66715   0.32466   0.78102   0.0000000000
O          O       0.82484   0.83058   0.71990   0.0000000000
O          O       0.17516   0.16942   0.71990   0.0000000000
O          O       0.16942   0.82484   0.71990   0.0000000000
O          O       0.83058   0.17516   0.71990   0.0000000000
O          O       0.17516   0.16942   0.28010   0.0000000000
O          O       0.82484   0.83058   0.28010   0.0000000000
O          O       0.83058   0.17516   0.28010   0.0000000000
O          O       0.16942   0.82484   0.28010   0.0000000000
O          O       0.13856   0.28959   0.33355   0.0000000000
O          O       0.86144   0.71041   0.33355   0.0000000000
O          O       0.71041   0.13856   0.33355   0.0000000000
O          O       0.28959   0.86144   0.33355   0.0000000000
O          O       0.86144   0.71041   0.66645   0.0000000000
O          O       0.13856   0.28959   0.66645   0.0000000000
O          O       0.28959   0.86144   0.66645   0.0000000000
O          O       0.71041   0.13856   0.66645   0.0000000000
O          O       0.63931   0.78895   0.83385   0.0000000000
O          O       0.36069   0.21105   0.83385   0.0000000000
O          O       0.21105   0.63931   0.83385   0.0000000000
O          O       0.78895   0.36069   0.83385   0.0000000000
O          O       0.36069   0.21105   0.16615   0.0000000000
O          O       0.63931   0.78895   0.16615   0.0000000000
O          O       0.78895   0.36069   0.16615   0.0000000000
O          O       0.21105   0.63931   0.16614   0.0000000000
O          O       0.10253   0.23879   0.37370   0.0000000000
O          O       0.89747   0.76121   0.37370   0.0000000000
O          O       0.76121   0.10253   0.37370   0.0000000000
O          O       0.23879   0.89747   0.37370   0.0000000000
O          O       0.89747   0.76121   0.62630   0.0000000000
O          O       0.10253   0.23879   0.62630   0.0000000000
O          O       0.23879   0.89747   0.62630   0.0000000000
O          O       0.76121   0.10253   0.62630   0.0000000000
O          O       0.59994   0.73804   0.87246   0.0000000000
O          O       0.40006   0.26196   0.87246   0.0000000000
O          O       0.26196   0.59994   0.87246   0.0000000000
O          O       0.73804   0.40006   0.87246   0.0000000000
O          O       0.40006   0.26196   0.12754   0.0000000000
O          O       0.59994   0.73804   0.12754   0.0000000000
O          O       0.73804   0.40006   0.12754   0.0000000000
O          O       0.26196   0.59994   0.12754   0.0000000000
O          O       0.99706   0.31078   0.46454   0.0000000000
O          O       0.00294   0.68922   0.46454   0.0000000000
O          O       0.68922   0.99706   0.46454   0.0000000000
O          O       0.31078   0.00294   0.46454   0.0000000000
O          O       0.00294   0.68922   0.53546   0.0000000000
O          O       0.99706   0.31078   0.53546   0.0000000000
O          O       0.31078   0.00294   0.53546   0.0000000000
O          O       0.68922   0.99706   0.53546   0.0000000000
O          O       0.49699   0.81034   0.96386   0.0000000000
O          O       0.50301   0.18966   0.96386   0.0000000000
O          O       0.18966   0.49699   0.96386   0.0000000000
O          O       0.81034   0.50301   0.96386   0.0000000000
O          O       0.50301   0.18967   0.03614   0.0000000000
O          O       0.49699   0.81034   0.03614   0.0000000000
O          O       0.81033   0.50301   0.03614   0.0000000000
O          O       0.18967   0.49699   0.03614   0.0000000000
O          O       0.98323   0.39486   0.46453   0.0000000000
O          O       0.01677   0.60514   0.46453   0.0000000000
O          O       0.60514   0.98323   0.46453   0.0000000000
O          O       0.39486   0.01677   0.46453   0.0000000000
O          O       0.01677   0.60514   0.53547   0.0000000000
O          O       0.98323   0.39486   0.53547   0.0000000000
O          O       0.39486   0.01677   0.53547   0.0000000000
O          O       0.60514   0.98323   0.53547   0.0000000000
O          O       0.48573   0.89481   0.96510   0.0000000000
O          O       0.51427   0.10519   0.96510   0.0000000000
O          O       0.10518   0.48572   0.96507   0.0000000000
O          O       0.89481   0.51427   0.96510   0.0000000000
O          O       0.51427   0.10519   0.03488   0.0000000000
O          O       0.48573   0.89481   0.03489   0.0000000000
O          O       0.89481   0.51427   0.03488   0.0000000000
O          O       0.10520   0.48574   0.03486   0.0000000000
N          N       0.17163   0.52903   0.37450   0.0000000000
N          N       0.82837   0.47097   0.37450   0.0000000000
N          N       0.47097   0.17163   0.37450   0.0000000000
N          N       0.52903   0.82837   0.37450   0.0000000000
N          N       0.82837   0.47097   0.62550   0.0000000000
N          N       0.17163   0.52903   0.62550   0.0000000000
N          N       0.52903   0.82837   0.62550   0.0000000000
N          N       0.47097   0.17163   0.62550   0.0000000000
N          N       0.67160   0.02829   0.87384   0.0000000000
N          N       0.32840   0.97171   0.87384   0.0000000000
N          N       0.97171   0.67160   0.87384   0.0000000000
N          N       0.02829   0.32840   0.87384   0.0000000000
N          N       0.32840   0.97171   0.12616   0.0000000000
N          N       0.67160   0.02829   0.12616   0.0000000000
N          N       0.02829   0.32840   0.12616   0.0000000000
N          N       0.97171   0.67160   0.12616   0.0000000000
N          N       0.22647   0.52068   0.32545   0.0000000000
N          N       0.77353   0.47932   0.32545   0.0000000000
N          N       0.47932   0.22647   0.32545   0.0000000000
N          N       0.52068   0.77353   0.32545   0.0000000000
N          N       0.77353   0.47932   0.67455   0.0000000000
N          N       0.22647   0.52068   0.67455   0.0000000000
N          N       0.52068   0.77353   0.67455   0.0000000000
N          N       0.47932   0.22647   0.67455   0.0000000000
N          N       0.72694   0.02034   0.82499   0.0000000000
N          N       0.27306   0.97966   0.82499   0.0000000000
N          N       0.97966   0.72694   0.82499   0.0000000000
N          N       0.02034   0.27306   0.82499   0.0000000000
N          N       0.27306   0.97966   0.17501   0.0000000000
N          N       0.72694   0.02034   0.17501   0.0000000000
N          N       0.02034   0.27306   0.17501   0.0000000000
N          N       0.97966   0.72694   0.17501   0.0000000000
N          N       0.17602   0.45122   0.34357   0.0000000000
N          N       0.82398   0.54877   0.34357   0.0000000000
N          N       0.54877   0.17602   0.34357   0.0000000000
N          N       0.45122   0.82398   0.34357   0.0000000000
N          N       0.82398   0.54877   0.65643   0.0000000000
N          N       0.17602   0.45122   0.65643   0.0000000000
N          N       0.45122   0.82398   0.65643   0.0000000000
N          N       0.54878   0.17602   0.65643   0.0000000000
N          N       0.67609   0.95074   0.84266   0.0000000000
N          N       0.32391   0.04925   0.84266   0.0000000000
N          N       0.04925   0.67609   0.84266   0.0000000000
N          N       0.95075   0.32391   0.84266   0.0000000000
N          N       0.32391   0.04926   0.15734   0.0000000000
N          N       0.67609   0.95074   0.15734   0.0000000000
N          N       0.95074   0.32391   0.15734   0.0000000000
N          N       0.04926   0.67609   0.15734   0.0000000000
C          C       0.20588   0.54619   0.35224   0.0000000000
C          C       0.79412   0.45381   0.35224   0.0000000000
C          C       0.45381   0.20588   0.35224   0.0000000000
C          C       0.54619   0.79412   0.35224   0.0000000000
C          C       0.79412   0.45381   0.64776   0.0000000000
C          C       0.20588   0.54619   0.64776   0.0000000000
C          C       0.54619   0.79412   0.64776   0.0000000000
C          C       0.45381   0.20588   0.64776   0.0000000000
C          C       0.70607   0.04565   0.85183   0.0000000000
C          C       0.29393   0.95435   0.85183   0.0000000000
C          C       0.95435   0.70607   0.85183   0.0000000000
C          C       0.04565   0.29393   0.85183   0.0000000000
C          C       0.29393   0.95435   0.14817   0.0000000000
C          C       0.70607   0.04565   0.14817   0.0000000000
C          C       0.04565   0.29393   0.14817   0.0000000000
C          C       0.95435   0.70607   0.14817   0.0000000000
C          C       0.20992   0.47377   0.32274   0.0000000000
C          C       0.79008   0.52623   0.32274   0.0000000000
C          C       0.52623   0.20992   0.32274   0.0000000000
C          C       0.47377   0.79008   0.32274   0.0000000000
C          C       0.79008   0.52623   0.67726   0.0000000000
C          C       0.20992   0.47377   0.67726   0.0000000000
C          C       0.47377   0.79008   0.67726   0.0000000000
C          C       0.52623   0.20992   0.67726   0.0000000000
C          C       0.71020   0.97348   0.82205   0.0000000000
C          C       0.28980   0.02652   0.82205   0.0000000000
C          C       0.02651   0.71020   0.82205   0.0000000000
C          C       0.97348   0.28980   0.82205   0.0000000000
C          C       0.28980   0.02652   0.17795   0.0000000000
C          C       0.71020   0.97348   0.17795   0.0000000000
C          C       0.97348   0.28980   0.17795   0.0000000000
C          C       0.02652   0.71020   0.17795   0.0000000000
C          C       0.15807   0.48089   0.36846   0.0000000000
C          C       0.84193   0.51911   0.36846   0.0000000000
C          C       0.51911   0.15807   0.36846   0.0000000000
C          C       0.48089   0.84193   0.36846   0.0000000000
C          C       0.84193   0.51911   0.63154   0.0000000000
C          C       0.15807   0.48089   0.63154   0.0000000000
C          C       0.48089   0.84193   0.63154   0.0000000000
C          C       0.51911   0.15807   0.63154   0.0000000000
C          C       0.65806   0.98022   0.86761   0.0000000000
C          C       0.34194   0.01978   0.86761   0.0000000000
C          C       0.01978   0.65806   0.86761   0.0000000000
C          C       0.98022   0.34194   0.86761   0.0000000000
C          C       0.34194   0.01978   0.13239   0.0000000000
C          C       0.65806   0.98022   0.13239   0.0000000000
C          C       0.98022   0.34194   0.13239   0.0000000000
C          C       0.01978   0.65806   0.13239   0.0000000000
N          N       0.22415   0.59414   0.35505   0.0000000000
N          N       0.77585   0.40586   0.35505   0.0000000000
N          N       0.40586   0.22415   0.35505   0.0000000000
N          N       0.59414   0.77585   0.35505   0.0000000000
N          N       0.77585   0.40586   0.64495   0.0000000000
N          N       0.22415   0.59414   0.64495   0.0000000000
N          N       0.59414   0.77585   0.64495   0.0000000000
N          N       0.40586   0.22415   0.64495   0.0000000000
N          N       0.72412   0.09363   0.85521   0.0000000000
N          N       0.27588   0.90637   0.85521   0.0000000000
N          N       0.90637   0.72412   0.85521   0.0000000000
N          N       0.09363   0.27588   0.85521   0.0000000000
N          N       0.27588   0.90637   0.14479   0.0000000000
N          N       0.72412   0.09363   0.14479   0.0000000000
N          N       0.09363   0.27588   0.14479   0.0000000000
N          N       0.90637   0.72412   0.14479   0.0000000000
H          H       0.24805   0.60213   0.33534   0.0000000000
H          H       0.75195   0.39787   0.33534   0.0000000000
H          H       0.39787   0.24805   0.33534   0.0000000000
H          H       0.60213   0.75195   0.33534   0.0000000000
H          H       0.75195   0.39787   0.66466   0.0000000000
H          H       0.24805   0.60213   0.66466   0.0000000000
H          H       0.60213   0.75195   0.66466   0.0000000000
H          H       0.39787   0.24805   0.66466   0.0000000000
H          H       0.74849   0.10214   0.83589   0.0000000000
H          H       0.25151   0.89786   0.83589   0.0000000000
H          H       0.89786   0.74849   0.83589   0.0000000000
H          H       0.10214   0.25151   0.83589   0.0000000000
H          H       0.25151   0.89786   0.16411   0.0000000000
H          H       0.74849   0.10214   0.16411   0.0000000000
H          H       0.10214   0.25151   0.16411   0.0000000000
H          H       0.89786   0.74849   0.16411   0.0000000000
N          N       0.22769   0.44320   0.29705   0.0000000000
N          N       0.77231   0.55680   0.29705   0.0000000000
N          N       0.55680   0.22769   0.29705   0.0000000000
N          N       0.44320   0.77231   0.29705   0.0000000000
N          N       0.77231   0.55680   0.70295   0.0000000000
N          N       0.22769   0.44320   0.70295   0.0000000000
N          N       0.44320   0.77231   0.70295   0.0000000000
N          N       0.55680   0.22769   0.70295   0.0000000000
N          N       0.72791   0.94287   0.79636   0.0000000000
N          N       0.27209   0.05713   0.79636   0.0000000000
N          N       0.05713   0.72791   0.79636   0.0000000000
N          N       0.94287   0.27209   0.79636   0.0000000000
N          N       0.27209   0.05713   0.20364   0.0000000000
N          N       0.72791   0.94287   0.20364   0.0000000000
N          N       0.94287   0.27209   0.20364   0.0000000000
N          N       0.05713   0.72791   0.20364   0.0000000000
H          H       0.21523   0.40745   0.29932   0.0000000000
H          H       0.78477   0.59255   0.29932   0.0000000000
H          H       0.59255   0.21523   0.29932   0.0000000000
H          H       0.40745   0.78477   0.29932   0.0000000000
H          H       0.78477   0.59255   0.70068   0.0000000000
H          H       0.21523   0.40745   0.70068   0.0000000000
H          H       0.40745   0.78477   0.70068   0.0000000000
H          H       0.59255   0.21523   0.70068   0.0000000000
H          H       0.71512   0.90724   0.79863   0.0000000000
H          H       0.28488   0.09276   0.79863   0.0000000000
H          H       0.09276   0.71512   0.79862   0.0000000000
H          H       0.90724   0.28488   0.79863   0.0000000000
H          H       0.28488   0.09276   0.20137   0.0000000000
H          H       0.71512   0.90724   0.20137   0.0000000000
H          H       0.90724   0.28488   0.20137   0.0000000000
H          H       0.09276   0.71512   0.20137   0.0000000000
N          N       0.12215   0.46306   0.39073   0.0000000000
N          N       0.87785   0.53694   0.39073   0.0000000000
N          N       0.53694   0.12215   0.39073   0.0000000000
N          N       0.46306   0.87785   0.39073   0.0000000000
N          N       0.87785   0.53694   0.60927   0.0000000000
N          N       0.12215   0.46306   0.60927   0.0000000000
N          N       0.46306   0.87785   0.60927   0.0000000000
N          N       0.53694   0.12215   0.60927   0.0000000000
N          N       0.62213   0.96232   0.88982   0.0000000000
N          N       0.37787   0.03768   0.88982   0.0000000000
N          N       0.03768   0.62213   0.88982   0.0000000000
N          N       0.96232   0.37787   0.88982   0.0000000000
N          N       0.37787   0.03768   0.11017   0.0000000000
N          N       0.62213   0.96232   0.11017   0.0000000000
N          N       0.96232   0.37787   0.11017   0.0000000000
N          N       0.03768   0.62212   0.11017   0.0000000000
H          H       0.11080   0.48931   0.40807   0.0000000000
H          H       0.88920   0.51069   0.40807   0.0000000000
H          H       0.51069   0.11080   0.40807   0.0000000000
H          H       0.48931   0.88920   0.40807   0.0000000000
H          H       0.88920   0.51069   0.59193   0.0000000000
H          H       0.11080   0.48931   0.59193   0.0000000000
H          H       0.48931   0.88920   0.59193   0.0000000000
H          H       0.51069   0.11080   0.59193   0.0000000000
H          H       0.61081   0.98866   0.90712   0.0000000000
H          H       0.38919   0.01134   0.90712   0.0000000000
H          H       0.01134   0.61081   0.90712   0.0000000000
H          H       0.98866   0.38919   0.90712   0.0000000000
H          H       0.38919   0.01134   0.09288   0.0000000000
H          H       0.61081   0.98866   0.09288   0.0000000000
H          H       0.98866   0.38919   0.09288   0.0000000000
H          H       0.01134   0.61081   0.09288   0.0000000000
C          C       0.20490   0.63549   0.37311   0.0000000000
C          C       0.79510   0.36451   0.37311   0.0000000000
C          C       0.36451   0.20490   0.37311   0.0000000000
C          C       0.63549   0.79510   0.37311   0.0000000000
C          C       0.79510   0.36451   0.62689   0.0000000000
C          C       0.20490   0.63549   0.62689   0.0000000000
C          C       0.63549   0.79510   0.62689   0.0000000000
C          C       0.36451   0.20490   0.62689   0.0000000000
C          C       0.70466   0.13460   0.87369   0.0000000000
C          C       0.29534   0.86540   0.87369   0.0000000000
C          C       0.86540   0.70466   0.87369   0.0000000000
C          C       0.13460   0.29533   0.87369   0.0000000000
C          C       0.29534   0.86540   0.12631   0.0000000000
C          C       0.70466   0.13460   0.12631   0.0000000000
C          C       0.13460   0.29534   0.12630   0.0000000000
C          C       0.86540   0.70466   0.12631   0.0000000000
C          C       0.17735   0.63130   0.40383   0.0000000000
C          C       0.82265   0.36870   0.40383   0.0000000000
C          C       0.36870   0.17735   0.40383   0.0000000000
C          C       0.63130   0.82265   0.40383   0.0000000000
C          C       0.82265   0.36870   0.59617   0.0000000000
C          C       0.17735   0.63130   0.59617   0.0000000000
C          C       0.63130   0.82265   0.59617   0.0000000000
C          C       0.36870   0.17735   0.59617   0.0000000000
C          C       0.67670   0.13017   0.90427   0.0000000000
C          C       0.32330   0.86983   0.90427   0.0000000000
C          C       0.86983   0.67670   0.90427   0.0000000000
C          C       0.13017   0.32330   0.90427   0.0000000000
C          C       0.32330   0.86983   0.09573   0.0000000000
C          C       0.67670   0.13017   0.09573   0.0000000000
C          C       0.13017   0.32330   0.09573   0.0000000000
C          C       0.86983   0.67670   0.09573   0.0000000000
H          H       0.17034   0.59493   0.41513   0.0000000000
H          H       0.82966   0.40507   0.41513   0.0000000000
H          H       0.40507   0.17034   0.41513   0.0000000000
H          H       0.59493   0.82966   0.41513   0.0000000000
H          H       0.82965   0.40507   0.58487   0.0000000000
H          H       0.17034   0.59493   0.58487   0.0000000000
H          H       0.59493   0.82966   0.58487   0.0000000000
H          H       0.40507   0.17034   0.58487   0.0000000000
H          H       0.66926   0.09366   0.91525   0.0000000000
H          H       0.33074   0.90634   0.91525   0.0000000000
H          H       0.90634   0.66926   0.91525   0.0000000000
H          H       0.09366   0.33074   0.91525   0.0000000000
H          H       0.33074   0.90634   0.08475   0.0000000000
H          H       0.66926   0.09365   0.08475   0.0000000000
H          H       0.09365   0.33075   0.08474   0.0000000000
H          H       0.90635   0.66926   0.08475   0.0000000000
C          C       0.15752   0.67433   0.41934   0.0000000000
C          C       0.84248   0.32567   0.41934   0.0000000000
C          C       0.32567   0.15752   0.41934   0.0000000000
C          C       0.67433   0.84248   0.41934   0.0000000000
C          C       0.84248   0.32567   0.58066   0.0000000000
C          C       0.15752   0.67433   0.58066   0.0000000000
C          C       0.67433   0.84248   0.58066   0.0000000000
C          C       0.32567   0.15752   0.58066   0.0000000000
C          C       0.65712   0.17325   0.91998   0.0000000000
C          C       0.34288   0.82675   0.91998   0.0000000000
C          C       0.82675   0.65712   0.91998   0.0000000000
C          C       0.17325   0.34287   0.91998   0.0000000000
C          C       0.34288   0.82675   0.08002   0.0000000000
C          C       0.65712   0.17325   0.08002   0.0000000000
C          C       0.17325   0.34288   0.08002   0.0000000000
C          C       0.82675   0.65712   0.08002   0.0000000000
C          C       0.16545   0.72160   0.40478   0.0000000000
C          C       0.83455   0.27840   0.40478   0.0000000000
C          C       0.27840   0.16545   0.40478   0.0000000000
C          C       0.72160   0.83455   0.40478   0.0000000000
C          C       0.83455   0.27840   0.59522   0.0000000000
C          C       0.16545   0.72160   0.59522   0.0000000000
C          C       0.72160   0.83455   0.59522   0.0000000000
C          C       0.27840   0.16545   0.59522   0.0000000000
C          C       0.66558   0.22070   0.90577   0.0000000000
C          C       0.33442   0.77930   0.90577   0.0000000000
C          C       0.77930   0.66558   0.90577   0.0000000000
C          C       0.22070   0.33441   0.90577   0.0000000000
C          C       0.33442   0.77931   0.09423   0.0000000000
C          C       0.66558   0.22069   0.09423   0.0000000000
C          C       0.22069   0.33442   0.09423   0.0000000000
C          C       0.77931   0.66558   0.09423   0.0000000000
H          H       0.14916   0.75471   0.41648   0.0000000000
H          H       0.85084   0.24529   0.41648   0.0000000000
H          H       0.24529   0.14916   0.41648   0.0000000000
H          H       0.75471   0.85084   0.41648   0.0000000000
H          H       0.85084   0.24529   0.58352   0.0000000000
H          H       0.14916   0.75471   0.58352   0.0000000000
H          H       0.75471   0.85084   0.58352   0.0000000000
H          H       0.24529   0.14916   0.58352   0.0000000000
H          H       0.64925   0.25360   0.91770   0.0000000000
H          H       0.35075   0.74640   0.91770   0.0000000000
H          H       0.74640   0.64925   0.91770   0.0000000000
H          H       0.25360   0.35075   0.91770   0.0000000000
H          H       0.35075   0.74641   0.08230   0.0000000000
H          H       0.64925   0.25359   0.08230   0.0000000000
H          H       0.25359   0.35075   0.08230   0.0000000000
H          H       0.74641   0.64925   0.08230   0.0000000000
C          C       0.19408   0.72575   0.37452   0.0000000000
C          C       0.80592   0.27425   0.37452   0.0000000000
C          C       0.27425   0.19408   0.37452   0.0000000000
C          C       0.72575   0.80592   0.37452   0.0000000000
C          C       0.80592   0.27425   0.62548   0.0000000000
C          C       0.19408   0.72575   0.62548   0.0000000000
C          C       0.72575   0.80592   0.62548   0.0000000000
C          C       0.27425   0.19408   0.62548   0.0000000000
C          C       0.69452   0.22502   0.87567   0.0000000000
C          C       0.30548   0.77498   0.87567   0.0000000000
C          C       0.77498   0.69452   0.87567   0.0000000000
C          C       0.22502   0.30548   0.87567   0.0000000000
C          C       0.30548   0.77498   0.12433   0.0000000000
C          C       0.69452   0.22502   0.12433   0.0000000000
C          C       0.22502   0.30549   0.12433   0.0000000000
C          C       0.77498   0.69452   0.12433   0.0000000000
C          C       0.21391   0.68295   0.35895   0.0000000000
C          C       0.78609   0.31705   0.35895   0.0000000000
C          C       0.31705   0.21391   0.35895   0.0000000000
C          C       0.68295   0.78609   0.35895   0.0000000000
C          C       0.78609   0.31705   0.64105   0.0000000000
C          C       0.21391   0.68295   0.64105   0.0000000000
C          C       0.68295   0.78609   0.64105   0.0000000000
C          C       0.31705   0.21391   0.64105   0.0000000000
C          C       0.71413   0.18223   0.85999   0.0000000000
C          C       0.28587   0.81777   0.85999   0.0000000000
C          C       0.81777   0.71413   0.85999   0.0000000000
C          C       0.18223   0.28587   0.85998   0.0000000000
C          C       0.28588   0.81777   0.14001   0.0000000000
C          C       0.71412   0.18223   0.14001   0.0000000000
C          C       0.18223   0.28588   0.14001   0.0000000000
C          C       0.81777   0.71412   0.14001   0.0000000000
H          H       0.23520   0.68694   0.33511   0.0000000000
H          H       0.76480   0.31306   0.33511   0.0000000000
H          H       0.31306   0.23520   0.33511   0.0000000000
H          H       0.68694   0.76480   0.33511   0.0000000000
H          H       0.76480   0.31306   0.66489   0.0000000000
H          H       0.23520   0.68694   0.66489   0.0000000000
H          H       0.68694   0.76480   0.66489   0.0000000000
H          H       0.31306   0.23520   0.66489   0.0000000000
H          H       0.73561   0.18645   0.83626   0.0000000000
H          H       0.26439   0.81355   0.83626   0.0000000000
H          H       0.81355   0.73561   0.83626   0.0000000000
H          H       0.18646   0.26439   0.83626   0.0000000000
H          H       0.26439   0.81355   0.16374   0.0000000000
H          H       0.73561   0.18645   0.16374   0.0000000000
H          H       0.18645   0.26439   0.16373   0.0000000000
H          H       0.81355   0.73561   0.16374   0.0000000000
C          C       0.12538   0.66891   0.45084   0.0000000000
C          C       0.87462   0.33110   0.45084   0.0000000000
C          C       0.33110   0.12538   0.45084   0.0000000000
C          C       0.66891   0.87462   0.45084   0.0000000000
C          C       0.87462   0.33110   0.54916   0.0000000000
C          C       0.12538   0.66891   0.54916   0.0000000000
C          C       0.66891   0.87462   0.54916   0.0000000000
C          C       0.33110   0.12538   0.54916   0.0000000000
C          C       0.62448   0.16820   0.95133   0.0000000000
C          C       0.37552   0.83180   0.95133   0.0000000000
C          C       0.83180   0.62448   0.95133   0.0000000000
C          C       0.16820   0.37552   0.95132   0.0000000000
C          C       0.37552   0.83180   0.04867   0.0000000000
C          C       0.62448   0.16820   0.04867   0.0000000000
C          C       0.16820   0.37552   0.04866   0.0000000000
C          C       0.83180   0.62448   0.04867   0.0000000000
C          C       0.20065   0.77559   0.35751   0.0000000000
C          C       0.79935   0.22441   0.35751   0.0000000000
C          C       0.22441   0.20065   0.35751   0.0000000000
C          C       0.77559   0.79935   0.35751   0.0000000000
C          C       0.79935   0.22441   0.64249   0.0000000000
C          C       0.20065   0.77559   0.64249   0.0000000000
C          C       0.77559   0.79935   0.64249   0.0000000000
C          C       0.22441   0.20065   0.64249   0.0000000000
C          C       0.70163   0.27463   0.85841   0.0000000000
C          C       0.29837   0.72537   0.85841   0.0000000000
C          C       0.72537   0.70163   0.85841   0.0000000000
C          C       0.27463   0.29837   0.85841   0.0000000000
C          C       0.29837   0.72538   0.14159   0.0000000000
C          C       0.70163   0.27462   0.14159   0.0000000000
C          C       0.27462   0.29837   0.14159   0.0000000000
C          C       0.72538   0.70163   0.14159   0.0000000000
C          C       0.25761   0.45390   0.26810   0.0000000000
C          C       0.74239   0.54610   0.26810   0.0000000000
C          C       0.54610   0.25761   0.26810   0.0000000000
C          C       0.45390   0.74239   0.26810   0.0000000000
C          C       0.74239   0.54610   0.73190   0.0000000000
C          C       0.25761   0.45390   0.73190   0.0000000000
C          C       0.45390   0.74239   0.73190   0.0000000000
C          C       0.54610   0.25761   0.73190   0.0000000000
C          C       0.75833   0.95301   0.76760   0.0000000000
C          C       0.24167   0.04699   0.76760   0.0000000000
C          C       0.04699   0.75833   0.76760   0.0000000000
C          C       0.95301   0.24167   0.76760   0.0000000000
C          C       0.24167   0.04699   0.23240   0.0000000000
C          C       0.75833   0.95301   0.23240   0.0000000000
C          C       0.95301   0.24167   0.23240   0.0000000000
C          C       0.04699   0.75833   0.23240   0.0000000000
C          C       0.26226   0.50179   0.25355   0.0000000000
C          C       0.73774   0.49821   0.25355   0.0000000000
C          C       0.49821   0.26226   0.25355   0.0000000000
C          C       0.50178   0.73774   0.25355   0.0000000000
C          C       0.73774   0.49821   0.74645   0.0000000000
C          C       0.26226   0.50179   0.74645   0.0000000000
C          C       0.50179   0.73774   0.74645   0.0000000000
C          C       0.49821   0.26226   0.74645   0.0000000000
C          C       0.76302   0.00045   0.75242   0.0000000000
C          C       0.23698   0.99955   0.75242   0.0000000000
C          C       0.99955   0.76302   0.75242   0.0000000000
C          C       0.00045   0.23698   0.75242   0.0000000000
C          C       0.23698   0.99955   0.24758   0.0000000000
C          C       0.76302   0.00045   0.24758   0.0000000000
C          C       0.00045   0.23698   0.24758   0.0000000000
C          C       0.99955   0.76302   0.24758   0.0000000000
H          H       0.24364   0.53354   0.26525   0.0000000000
H          H       0.75636   0.46646   0.26525   0.0000000000
H          H       0.46646   0.24364   0.26525   0.0000000000
H          H       0.53354   0.75636   0.26525   0.0000000000
H          H       0.75636   0.46646   0.73475   0.0000000000
H          H       0.24364   0.53354   0.73475   0.0000000000
H          H       0.53354   0.75636   0.73475   0.0000000000
H          H       0.46646   0.24364   0.73475   0.0000000000
H          H       0.74423   0.03253   0.76355   0.0000000000
H          H       0.25577   0.96747   0.76355   0.0000000000
H          H       0.96747   0.74423   0.76355   0.0000000000
H          H       0.03253   0.25577   0.76355   0.0000000000
H          H       0.25577   0.96747   0.23645   0.0000000000
H          H       0.74423   0.03253   0.23645   0.0000000000
H          H       0.03253   0.25577   0.23645   0.0000000000
H          H       0.96747   0.74423   0.23645   0.0000000000
C          C       0.29053   0.50820   0.22334   0.0000000000
C          C       0.70947   0.49180   0.22334   0.0000000000
C          C       0.49180   0.29053   0.22334   0.0000000000
C          C       0.50820   0.70947   0.22334   0.0000000000
C          C       0.70947   0.49180   0.77666   0.0000000000
C          C       0.29053   0.50820   0.77666   0.0000000000
C          C       0.50820   0.70947   0.77666   0.0000000000
C          C       0.49180   0.29053   0.77666   0.0000000000
C          C       0.79138   0.00599   0.72213   0.0000000000
C          C       0.20862   0.99401   0.72213   0.0000000000
C          C       0.99401   0.79138   0.72213   0.0000000000
C          C       0.00599   0.20862   0.72213   0.0000000000
C          C       0.20862   0.99401   0.27787   0.0000000000
C          C       0.79138   0.00599   0.27787   0.0000000000
C          C       0.00599   0.20862   0.27787   0.0000000000
C          C       0.99401   0.79138   0.27787   0.0000000000
C          C       0.31438   0.46754   0.20757   0.0000000000
C          C       0.68562   0.53246   0.20757   0.0000000000
C          C       0.53246   0.31438   0.20757   0.0000000000
C          C       0.46754   0.68562   0.20757   0.0000000000
C          C       0.68562   0.53246   0.79243   0.0000000000
C          C       0.31438   0.46754   0.79243   0.0000000000
C          C       0.46754   0.68562   0.79243   0.0000000000
C          C       0.53246   0.31438   0.79243   0.0000000000
C          C       0.81555   0.96502   0.70708   0.0000000000
C          C       0.18445   0.03498   0.70708   0.0000000000
C          C       0.03498   0.81555   0.70708   0.0000000000
C          C       0.96502   0.18445   0.70708   0.0000000000
C          C       0.18445   0.03498   0.29292   0.0000000000
C          C       0.81555   0.96502   0.29292   0.0000000000
C          C       0.96502   0.18445   0.29292   0.0000000000
C          C       0.03498   0.81555   0.29292   0.0000000000
H          H       0.33582   0.47281   0.18402   0.0000000000
H          H       0.66418   0.52719   0.18402   0.0000000000
H          H       0.52719   0.33582   0.18402   0.0000000000
H          H       0.47281   0.66418   0.18402   0.0000000000
H          H       0.66418   0.52719   0.81598   0.0000000000
H          H       0.33582   0.47281   0.81598   0.0000000000
H          H       0.47281   0.66418   0.81598   0.0000000000
H          H       0.52719   0.33582   0.81598   0.0000000000
H          H       0.83707   0.96957   0.68348   0.0000000000
H          H       0.16293   0.03043   0.68348   0.0000000000
H          H       0.03043   0.83707   0.68348   0.0000000000
H          H       0.96957   0.16293   0.68348   0.0000000000
H          H       0.16293   0.03043   0.31652   0.0000000000
H          H       0.83707   0.96957   0.31652   0.0000000000
H          H       0.96957   0.16293   0.31652   0.0000000000
H          H       0.03043   0.83707   0.31652   0.0000000000
C          C       0.30929   0.41989   0.22203   0.0000000000
C          C       0.69071   0.58011   0.22203   0.0000000000
C          C       0.58011   0.30929   0.22203   0.0000000000
C          C       0.41989   0.69071   0.22203   0.0000000000
C          C       0.69071   0.58011   0.77797   0.0000000000
C          C       0.30929   0.41989   0.77797   0.0000000000
C          C       0.41989   0.69071   0.77797   0.0000000000
C          C       0.58011   0.30929   0.77797   0.0000000000
C          C       0.81058   0.91788   0.72234   0.0000000000
C          C       0.18942   0.08212   0.72234   0.0000000000
C          C       0.08212   0.81058   0.72234   0.0000000000
C          C       0.91788   0.18942   0.72234   0.0000000000
C          C       0.18942   0.08212   0.27766   0.0000000000
C          C       0.81058   0.91788   0.27766   0.0000000000
C          C       0.91788   0.18942   0.27766   0.0000000000
C          C       0.08212   0.81058   0.27766   0.0000000000
C          C       0.28124   0.41320   0.25218   0.0000000000
C          C       0.71876   0.58680   0.25218   0.0000000000
C          C       0.58680   0.28124   0.25218   0.0000000000
C          C       0.41320   0.71876   0.25218   0.0000000000
C          C       0.71876   0.58680   0.74782   0.0000000000
C          C       0.28124   0.41320   0.74782   0.0000000000
C          C       0.41320   0.71876   0.74782   0.0000000000
C          C       0.58680   0.28124   0.74782   0.0000000000
C          C       0.78223   0.91195   0.75239   0.0000000000
C          C       0.21777   0.08805   0.75239   0.0000000000
C          C       0.08805   0.78223   0.75238   0.0000000000
C          C       0.91195   0.21777   0.75239   0.0000000000
C          C       0.21777   0.08805   0.24761   0.0000000000
C          C       0.78223   0.91195   0.24761   0.0000000000
C          C       0.91195   0.21777   0.24761   0.0000000000
C          C       0.08805   0.78223   0.24761   0.0000000000
H          H       0.27760   0.37577   0.26289   0.0000000000
H          H       0.72240   0.62423   0.26289   0.0000000000
H          H       0.62423   0.27760   0.26289   0.0000000000
H          H       0.37577   0.72240   0.26289   0.0000000000
H          H       0.72240   0.62423   0.73711   0.0000000000
H          H       0.27760   0.37577   0.73711   0.0000000000
H          H       0.37577   0.72240   0.73711   0.0000000000
H          H       0.62423   0.27760   0.73711   0.0000000000
H          H       0.77851   0.87480   0.76353   0.0000000000
H          H       0.22149   0.12520   0.76353   0.0000000000
H          H       0.12520   0.77851   0.76353   0.0000000000
H          H       0.87480   0.22149   0.76353   0.0000000000
H          H       0.22149   0.12520   0.23647   0.0000000000
H          H       0.77851   0.87480   0.23647   0.0000000000
H          H       0.87480   0.22149   0.23647   0.0000000000
H          H       0.12520   0.77851   0.23647   0.0000000000
C          C       0.29343   0.55835   0.20626   0.0000000000
C          C       0.70657   0.44165   0.20626   0.0000000000
C          C       0.44165   0.29343   0.20626   0.0000000000
C          C       0.55835   0.70657   0.20626   0.0000000000
C          C       0.70657   0.44165   0.79374   0.0000000000
C          C       0.29343   0.55835   0.79374   0.0000000000
C          C       0.55835   0.70657   0.79374   0.0000000000
C          C       0.44165   0.29343   0.79374   0.0000000000
C          C       0.79371   0.05563   0.70439   0.0000000000
C          C       0.20629   0.94437   0.70439   0.0000000000
C          C       0.94437   0.79371   0.70439   0.0000000000
C          C       0.05563   0.20629   0.70439   0.0000000000
C          C       0.20629   0.94437   0.29561   0.0000000000
C          C       0.79371   0.05563   0.29561   0.0000000000
C          C       0.05563   0.20629   0.29561   0.0000000000
C          C       0.94437   0.79371   0.29561   0.0000000000
C          C       0.33166   0.37546   0.20453   0.0000000000
C          C       0.66834   0.62454   0.20453   0.0000000000
C          C       0.62454   0.33166   0.20453   0.0000000000
C          C       0.37546   0.66834   0.20453   0.0000000000
C          C       0.66834   0.62454   0.79547   0.0000000000
C          C       0.33166   0.37546   0.79547   0.0000000000
C          C       0.37546   0.66834   0.79547   0.0000000000
C          C       0.62454   0.33166   0.79547   0.0000000000
C          C       0.83318   0.87307   0.70567   0.0000000000
C          C       0.16682   0.12693   0.70567   0.0000000000
C          C       0.12693   0.83318   0.70567   0.0000000000
C          C       0.87307   0.16682   0.70567   0.0000000000
C          C       0.16682   0.12693   0.29433   0.0000000000
C          C       0.83318   0.87307   0.29433   0.0000000000
C          C       0.87307   0.16682   0.29433   0.0000000000
C          C       0.12693   0.83318   0.29433   0.0000000000
C          C       0.10186   0.41488   0.39462   0.0000000000
C          C       0.89814   0.58512   0.39462   0.0000000000
C          C       0.58512   0.10186   0.39462   0.0000000000
C          C       0.41488   0.89814   0.39462   0.0000000000
C          C       0.89814   0.58512   0.60538   0.0000000000
C          C       0.10186   0.41488   0.60538   0.0000000000
C          C       0.41488   0.89814   0.60538   0.0000000000
C          C       0.58512   0.10186   0.60538   0.0000000000
C          C       0.60194   0.91416   0.89388   0.0000000000
C          C       0.39806   0.08584   0.89388   0.0000000000
C          C       0.08584   0.60195   0.89388   0.0000000000
C          C       0.91416   0.39806   0.89388   0.0000000000
C          C       0.39806   0.08584   0.10612   0.0000000000
C          C       0.60194   0.91416   0.10612   0.0000000000
C          C       0.91416   0.39806   0.10612   0.0000000000
C          C       0.08584   0.60193   0.10611   0.0000000000
C          C       0.11708   0.37322   0.37511   0.0000000000
C          C       0.88292   0.62678   0.37511   0.0000000000
C          C       0.62678   0.11708   0.37511   0.0000000000
C          C       0.37322   0.88292   0.37511   0.0000000000
C          C       0.88292   0.62678   0.62489   0.0000000000
C          C       0.11708   0.37322   0.62489   0.0000000000
C          C       0.37322   0.88292   0.62489   0.0000000000
C          C       0.62678   0.11708   0.62489   0.0000000000
C          C       0.61680   0.87242   0.87436   0.0000000000
C          C       0.38320   0.12758   0.87436   0.0000000000
C          C       0.12759   0.61681   0.87436   0.0000000000
C          C       0.87242   0.38320   0.87436   0.0000000000
C          C       0.38320   0.12758   0.12564   0.0000000000
C          C       0.61680   0.87242   0.12564   0.0000000000
C          C       0.87242   0.38320   0.12564   0.0000000000
C          C       0.12758   0.61679   0.12563   0.0000000000
H          H       0.14457   0.37770   0.35482   0.0000000000
H          H       0.85543   0.62230   0.35482   0.0000000000
H          H       0.62230   0.14457   0.35482   0.0000000000
H          H       0.37770   0.85543   0.35482   0.0000000000
H          H       0.85543   0.62230   0.64518   0.0000000000
H          H       0.14457   0.37770   0.64518   0.0000000000
H          H       0.37770   0.85543   0.64518   0.0000000000
H          H       0.62230   0.14457   0.64518   0.0000000000
H          H       0.64414   0.87672   0.85395   0.0000000000
H          H       0.35585   0.12328   0.85395   0.0000000000
H          H       0.12328   0.64415   0.85395   0.0000000000
H          H       0.87672   0.35586   0.85395   0.0000000000
H          H       0.35586   0.12328   0.14605   0.0000000000
H          H       0.64414   0.87672   0.14605   0.0000000000
H          H       0.87672   0.35586   0.14605   0.0000000000
H          H       0.12328   0.64414   0.14604   0.0000000000
C          C       0.09705   0.32598   0.38217   0.0000000000
C          C       0.90295   0.67402   0.38217   0.0000000000
C          C       0.67402   0.09705   0.38217   0.0000000000
C          C       0.32598   0.90295   0.38217   0.0000000000
C          C       0.90295   0.67402   0.61783   0.0000000000
C          C       0.09705   0.32598   0.61783   0.0000000000
C          C       0.32598   0.90295   0.61783   0.0000000000
C          C       0.67402   0.09705   0.61783   0.0000000000
C          C       0.59663   0.82526   0.88162   0.0000000000
C          C       0.40337   0.17474   0.88162   0.0000000000
C          C       0.17474   0.59663   0.88162   0.0000000000
C          C       0.82526   0.40337   0.88162   0.0000000000
C          C       0.40338   0.17473   0.11838   0.0000000000
C          C       0.59663   0.82526   0.11838   0.0000000000
C          C       0.82526   0.40338   0.11838   0.0000000000
C          C       0.17473   0.59662   0.11837   0.0000000000
C          C       0.06153   0.31937   0.40837   0.0000000000
C          C       0.93847   0.68063   0.40837   0.0000000000
C          C       0.68063   0.06153   0.40837   0.0000000000
C          C       0.31937   0.93847   0.40837   0.0000000000
C          C       0.93847   0.68063   0.59163   0.0000000000
C          C       0.06153   0.31937   0.59163   0.0000000000
C          C       0.31937   0.93847   0.59163   0.0000000000
C          C       0.68063   0.06153   0.59163   0.0000000000
C          C       0.56150   0.81883   0.90802   0.0000000000
C          C       0.43850   0.18117   0.90802   0.0000000000
C          C       0.18117   0.56151   0.90801   0.0000000000
C          C       0.81883   0.43850   0.90802   0.0000000000
C          C       0.43850   0.18117   0.09198   0.0000000000
C          C       0.56150   0.81883   0.09198   0.0000000000
C          C       0.81883   0.43850   0.09198   0.0000000000
C          C       0.18117   0.56149   0.09198   0.0000000000
H          H       0.04676   0.28248   0.41407   0.0000000000
H          H       0.95324   0.71752   0.41407   0.0000000000
H          H       0.71752   0.04676   0.41407   0.0000000000
H          H       0.28248   0.95324   0.41407   0.0000000000
H          H       0.95324   0.71752   0.58593   0.0000000000
H          H       0.04676   0.28248   0.58593   0.0000000000
H          H       0.28248   0.95324   0.58593   0.0000000000
H          H       0.71752   0.04676   0.58593   0.0000000000
H          H       0.54654   0.78208   0.91389   0.0000000000
H          H       0.45346   0.21792   0.91389   0.0000000000
H          H       0.21792   0.54654   0.91389   0.0000000000
H          H       0.78208   0.45346   0.91389   0.0000000000
H          H       0.45347   0.21792   0.08610   0.0000000000
H          H       0.54654   0.78208   0.08610   0.0000000000
H          H       0.78208   0.45346   0.08610   0.0000000000
H          H       0.21791   0.54653   0.08610   0.0000000000
C          C       0.04476   0.36126   0.42675   0.0000000000
C          C       0.95524   0.63874   0.42675   0.0000000000
C          C       0.63874   0.04476   0.42675   0.0000000000
C          C       0.36126   0.95524   0.42675   0.0000000000
C          C       0.95524   0.63874   0.57325   0.0000000000
C          C       0.04476   0.36126   0.57325   0.0000000000
C          C       0.36126   0.95524   0.57325   0.0000000000
C          C       0.63874   0.04476   0.57325   0.0000000000
C          C       0.54536   0.86076   0.92650   0.0000000000
C          C       0.45464   0.13924   0.92650   0.0000000000
C          C       0.13924   0.54537   0.92649   0.0000000000
C          C       0.86076   0.45464   0.92650   0.0000000000
C          C       0.45464   0.13924   0.07350   0.0000000000
C          C       0.54536   0.86076   0.07350   0.0000000000
C          C       0.86076   0.45464   0.07350   0.0000000000
C          C       0.13923   0.54536   0.07350   0.0000000000
C          C       0.06457   0.40863   0.41988   0.0000000000
C          C       0.93543   0.59137   0.41988   0.0000000000
C          C       0.59137   0.06457   0.41988   0.0000000000
C          C       0.40863   0.93543   0.41988   0.0000000000
C          C       0.93543   0.59137   0.58012   0.0000000000
C          C       0.06457   0.40863   0.58012   0.0000000000
C          C       0.40863   0.93544   0.58012   0.0000000000
C          C       0.59137   0.06457   0.58012   0.0000000000
C          C       0.56509   0.90808   0.91943   0.0000000000
C          C       0.43491   0.09192   0.91943   0.0000000000
C          C       0.09192   0.56509   0.91943   0.0000000000
C          C       0.90808   0.43491   0.91943   0.0000000000
C          C       0.43491   0.09192   0.08056   0.0000000000
C          C       0.56509   0.90808   0.08056   0.0000000000
C          C       0.90808   0.43491   0.08056   0.0000000000
C          C       0.09192   0.56509   0.08056   0.0000000000
H          H       0.05076   0.44036   0.43469   0.0000000000
H          H       0.94924   0.55964   0.43469   0.0000000000
H          H       0.55964   0.05076   0.43469   0.0000000000
H          H       0.44036   0.94924   0.43469   0.0000000000
H          H       0.94924   0.55964   0.56531   0.0000000000
H          H       0.05076   0.44036   0.56531   0.0000000000
H          H       0.44036   0.94924   0.56531   0.0000000000
H          H       0.55964   0.05076   0.56531   0.0000000000
H          H       0.55158   0.93990   0.93427   0.0000000000
H          H       0.44842   0.06010   0.93427   0.0000000000
H          H       0.06010   0.55158   0.93427   0.0000000000
H          H       0.93990   0.44842   0.93427   0.0000000000
H          H       0.44842   0.06009   0.06572   0.0000000000
H          H       0.55158   0.93991   0.06572   0.0000000000
H          H       0.93991   0.44842   0.06572   0.0000000000
H          H       0.06009   0.55158   0.06572   0.0000000000
C          C       0.11408   0.28174   0.36156   0.0000000000
C          C       0.88592   0.71826   0.36156   0.0000000000
C          C       0.71826   0.11408   0.36156   0.0000000000
C          C       0.28174   0.88592   0.36156   0.0000000000
C          C       0.88592   0.71826   0.63844   0.0000000000
C          C       0.11408   0.28174   0.63844   0.0000000000
C          C       0.28174   0.88592   0.63844   0.0000000000
C          C       0.71826   0.11408   0.63844   0.0000000000
C          C       0.61325   0.78094   0.86111   0.0000000000
C          C       0.38675   0.21906   0.86111   0.0000000000
C          C       0.21906   0.61326   0.86110   0.0000000000
C          C       0.78094   0.38675   0.86111   0.0000000000
C          C       0.38675   0.21906   0.13889   0.0000000000
C          C       0.61325   0.78094   0.13889   0.0000000000
C          C       0.78094   0.38675   0.13889   0.0000000000
C          C       0.21906   0.61325   0.13889   0.0000000000
C          C       0.00547   0.35525   0.45392   0.0000000000
C          C       0.99453   0.64475   0.45392   0.0000000000
C          C       0.64475   0.00547   0.45392   0.0000000000
C          C       0.35525   0.99453   0.45392   0.0000000000
C          C       0.99453   0.64475   0.54608   0.0000000000
C          C       0.00547   0.35525   0.54608   0.0000000000
C          C       0.35525   0.99453   0.54608   0.0000000000
C          C       0.64475   0.00547   0.54608   0.0000000000
C          C       0.50654   0.85487   0.95385   0.0000000000
C          C       0.49346   0.14513   0.95385   0.0000000000
C          C       0.14513   0.50654   0.95384   0.0000000000
C          C       0.85487   0.49346   0.95385   0.0000000000
C          C       0.49346   0.14513   0.04614   0.0000000000
C          C       0.50654   0.85487   0.04615   0.0000000000
C          C       0.85487   0.49346   0.04615   0.0000000000
C          C       0.14514   0.50654   0.04614   0.0000000000
O          O      -0.04135   0.50795   0.49341   0.0000000000
C          C       0.00251   0.50536   0.49343   0.0000000000
O          O       0.04645   0.50278   0.49341   0.0000000000
